<?xml version="1.0" encoding="UTF-8"?>

<!-- generated on 2026-06-13 13:29:09.430038 by Eclipse SUMO osmWebWizard.py v1_27_0+0000-e238ea04b71
<configuration>
    <net-file value="C:\Users\Lovemore\TrafficBrain\simulation\2026-06-13-13-24-10\osm.net.xml.gz"/>
    <output-trip-file value="C:\Users\Lovemore\TrafficBrain\simulation\2026-06-13-13-24-10\osm.passenger.trips.xml"/>
    <route-file value="C:\Users\Lovemore\TrafficBrain\simulation\2026-06-13-13-24-10\osm.passenger.rou.xml"/>
    <prefix value="veh"/>
    <trip-attributes value="departLane=&quot;best&quot;"/>
    <fringe-start-attributes value="departSpeed=&quot;max&quot;"/>
    <vehicle-class value="passenger"/>
    <lanes value="True"/>
    <fringe-factor value="5"/>
    <allow-fringe.min-length value="1000.0"/>
    <edge-permission value="passenger"/>
    <via-edge-types value="highway.motorway,highway.motorway_link,highway.trunk_link,highway.primary_link,highway.secondary_link,highway.tertiary_link"/>
    <min-distance value="300.0"/>
    <min-distance.fringe value="10.0"/>
    <remove-loops value="True"/>
    <insertion-density value="12.0"/>
</configuration>
-->

<routes xmlns:xsi="http://www.w3.org/2001/XMLSchema-instance" xsi:noNamespaceSchemaLocation="http://sumo.dlr.de/xsd/routes_file.xsd">
    <vType id="veh_passenger" vClass="passenger"/>
    <trip id="veh0" depart="0.00" from="295138496#1-AddedOffRampEdge" to="-228569956#1" departLane="best" type="veh_passenger"/>
    <trip id="veh1" depart="0.39" from="-481063576#11" to="-445054340#1" departLane="best" type="veh_passenger"/>
    <trip id="veh2" depart="0.77" from="444017149#0" to="35442946#10" departLane="best" type="veh_passenger" departSpeed="max"/>
    <trip id="veh3" depart="1.16" from="817274790#2" to="-26285139#9" departLane="best" type="veh_passenger"/>
    <trip id="veh4" depart="1.54" from="-885813929#4" to="-24341705#21" departLane="best" type="veh_passenger" departSpeed="max"/>
    <trip id="veh5" depart="1.93" from="-447231329#0" to="25533087#7" departLane="best" type="veh_passenger"/>
    <trip id="veh6" depart="2.31" from="-243279374#0" to="-35442946#0" departLane="best" type="veh_passenger"/>
    <trip id="veh7" depart="2.70" from="295990508" to="26214718#8" departLane="best" type="veh_passenger" departSpeed="max"/>
    <trip id="veh8" depart="3.08" from="-447382297" to="295138496#6-AddedOnRampEdge" departLane="best" type="veh_passenger" departSpeed="max"/>
    <trip id="veh9" depart="3.47" from="481063576#1" to="-1122600526" departLane="best" type="veh_passenger"/>
    <trip id="veh10" depart="3.85" from="481063562#12" to="444060953#1" departLane="best" type="veh_passenger"/>
    <trip id="veh11" depart="4.24" from="-652831559#1" to="-30020458" departLane="best" type="veh_passenger"/>
    <trip id="veh12" depart="4.63" from="906565087" to="-652858012#0" departLane="best" type="veh_passenger"/>
    <trip id="veh13" depart="5.01" from="-293271112#2" to="-26311227#2" departLane="best" type="veh_passenger" departSpeed="max"/>
    <trip id="veh14" depart="5.40" from="489447763#2" to="29696920#0" departLane="best" type="veh_passenger"/>
    <trip id="veh15" depart="5.78" from="481063562#6" to="480297721#4" departLane="best" type="veh_passenger"/>
    <trip id="veh16" depart="6.17" from="24341705#20" to="91638040#9" departLane="best" type="veh_passenger"/>
    <trip id="veh17" depart="6.55" from="-852152839#0" to="26285113#0" departLane="best" type="veh_passenger"/>
    <trip id="veh18" depart="6.94" from="481681439#2" to="29969485#16" departLane="best" type="veh_passenger"/>
    <trip id="veh19" depart="7.32" from="652032715" to="29453122#2" departLane="best" type="veh_passenger" departSpeed="max"/>
    <trip id="veh20" depart="7.71" from="305891978#1" to="-25724256#1" departLane="best" type="veh_passenger"/>
    <trip id="veh21" depart="8.09" from="-447778937#1" to="-481681439#5" departLane="best" type="veh_passenger" departSpeed="max"/>
    <trip id="veh22" depart="8.48" from="-26285139#10" to="-447765804" departLane="best" type="veh_passenger"/>
    <trip id="veh23" depart="8.87" from="-29453122#6" to="-481063586" departLane="best" type="veh_passenger"/>
    <trip id="veh24" depart="9.25" from="29457525#1" to="-852662567#0" departLane="best" type="veh_passenger"/>
    <trip id="veh25" depart="9.64" from="-850809381" to="-444024929#2" departLane="best" type="veh_passenger"/>
    <trip id="veh26" depart="10.02" from="-480869373" to="885813929#0" departLane="best" type="veh_passenger"/>
    <trip id="veh27" depart="10.41" from="295949441#0" to="29697568#0" departLane="best" type="veh_passenger" departSpeed="max"/>
    <trip id="veh28" depart="10.79" from="-305892755#2" to="480271653#3" departLane="best" type="veh_passenger"/>
    <trip id="veh29" depart="11.18" from="-305891978#0" to="-859200237#3" departLane="best" type="veh_passenger"/>
    <trip id="veh30" depart="11.56" from="922481401" to="30374041#1" departLane="best" type="veh_passenger" departSpeed="max"/>
    <trip id="veh31" depart="11.95" from="25724332#1" to="442666148" departLane="best" type="veh_passenger"/>
    <trip id="veh32" depart="12.33" from="489439868" to="481063583#17" departLane="best" type="veh_passenger"/>
    <trip id="veh33" depart="12.72" from="-447793052" to="-24404753#1" departLane="best" type="veh_passenger" departSpeed="max"/>
    <trip id="veh34" depart="13.11" from="-489878281" to="-481063560#2" departLane="best" type="veh_passenger" departSpeed="max"/>
    <trip id="veh35" depart="13.49" from="-444061017#1" to="897145601" departLane="best" type="veh_passenger"/>
    <trip id="veh36" depart="13.88" from="652817956#1" to="-651955535" departLane="best" type="veh_passenger"/>
    <trip id="veh37" depart="14.26" from="296509386" to="-899906283" departLane="best" type="veh_passenger" departSpeed="max"/>
    <trip id="veh38" depart="14.65" from="852678422#0" to="1421584079" departLane="best" type="veh_passenger"/>
    <trip id="veh39" depart="15.03" from="-480869371" to="-480535584#3" departLane="best" type="veh_passenger" departSpeed="max"/>
    <trip id="veh40" depart="15.42" from="25724486#2" to="-480869374" departLane="best" type="veh_passenger"/>
    <trip id="veh41" depart="15.80" from="26214664#0" to="852652029#1" departLane="best" type="veh_passenger"/>
    <trip id="veh42" depart="16.19" from="-854890412" to="-444061017#2" departLane="best" type="veh_passenger" departSpeed="max"/>
    <trip id="veh43" depart="16.57" from="954499700#0" to="25724262" departLane="best" type="veh_passenger" departSpeed="max"/>
    <trip id="veh44" depart="16.96" from="-293149543#3" to="-25724271#2" departLane="best" type="veh_passenger"/>
    <trip id="veh45" depart="17.35" from="-29458448" to="30020486#3" departLane="best" type="veh_passenger"/>
    <trip id="veh46" depart="17.73" from="480745761#0" to="-91638099#1" departLane="best" type="veh_passenger" departSpeed="max"/>
    <trip id="veh47" depart="18.12" from="-26162415" to="-864305603#3" departLane="best" type="veh_passenger"/>
    <trip id="veh48" depart="18.50" from="953339958#0" to="26162359#0" departLane="best" type="veh_passenger" departSpeed="max"/>
    <trip id="veh49" depart="18.89" from="91638052#2" to="840216775" departLane="best" type="veh_passenger"/>
    <trip id="veh50" depart="19.27" from="-154503886#7" to="472365032#0-AddedOffRampEdge" departLane="best" type="veh_passenger"/>
    <trip id="veh51" depart="19.66" from="30020486#1" to="26162422#2" departLane="best" type="veh_passenger"/>
    <trip id="veh52" depart="20.04" from="-480869372#9" to="30374041#16" departLane="best" type="veh_passenger"/>
    <trip id="veh53" depart="20.43" from="-295949441#6" to="-925204045#0" departLane="best" type="veh_passenger" departSpeed="max"/>
    <trip id="veh54" depart="20.81" from="-915904823" to="906508289#0" departLane="best" type="veh_passenger" departSpeed="max"/>
    <trip id="veh55" depart="21.20" from="652764178" to="-480869375#2" departLane="best" type="veh_passenger"/>
    <trip id="veh56" depart="21.58" from="1421584074#1" to="-305891982#0" departLane="best" type="veh_passenger"/>
    <trip id="veh57" depart="21.97" from="852613261" to="844662226#4" departLane="best" type="veh_passenger"/>
    <trip id="veh58" depart="22.36" from="-489437884#2" to="30374035#8" departLane="best" type="veh_passenger"/>
    <trip id="veh59" depart="22.74" from="26287059" to="-29972406#2" departLane="best" type="veh_passenger" departSpeed="max"/>
    <trip id="veh60" depart="23.13" from="472365032#3" to="26214664#5" departLane="best" type="veh_passenger"/>
    <trip id="veh61" depart="23.51" from="-1122600520#0" to="-652289110#2" departLane="best" type="veh_passenger"/>
    <trip id="veh62" depart="23.90" from="-228569957" to="875798504#1" departLane="best" type="veh_passenger" departSpeed="max"/>
    <trip id="veh63" depart="24.28" from="653985851#0" to="652294615#4" departLane="best" type="veh_passenger" departSpeed="max"/>
    <trip id="veh64" depart="24.67" from="-489447764#0" to="-26153775#11" departLane="best" type="veh_passenger"/>
    <trip id="veh65" depart="25.05" from="652858012#0" to="900154680#1" departLane="best" type="veh_passenger" departSpeed="max"/>
    <trip id="veh66" depart="25.44" from="-26311168#6" to="228569957" departLane="best" type="veh_passenger"/>
    <trip id="veh67" depart="25.82" from="-26214684#1" to="480869366" departLane="best" type="veh_passenger"/>
    <trip id="veh68" depart="26.21" from="472365051#0" to="-296509379#5" departLane="best" type="veh_passenger"/>
    <trip id="veh69" depart="26.60" from="-925204045#2" to="26267240#4" departLane="best" type="veh_passenger"/>
    <trip id="veh70" depart="26.98" from="-480869371" to="844917152#0" departLane="best" type="veh_passenger" departSpeed="max"/>
    <trip id="veh71" depart="27.37" from="-886939725#0" to="-444042544" departLane="best" type="veh_passenger"/>
    <trip id="veh72" depart="27.75" from="24448974#10" to="480297721#8" departLane="best" type="veh_passenger"/>
    <trip id="veh73" depart="28.14" from="-444025412#1" to="-489669135#0" departLane="best" type="veh_passenger"/>
    <trip id="veh74" depart="28.52" from="953325773" to="305876373#1" departLane="best" type="veh_passenger" departSpeed="max"/>
    <trip id="veh75" depart="28.91" from="-904299046" to="26123496#0" departLane="best" type="veh_passenger" departSpeed="max"/>
    <trip id="veh76" depart="29.29" from="-29697333#4" to="-445054345#1" departLane="best" type="veh_passenger"/>
    <trip id="veh77" depart="29.68" from="-652763805#1" to="295138496#4" departLane="best" type="veh_passenger"/>
    <trip id="veh78" depart="30.06" from="-447793472" to="-444061187" departLane="best" type="veh_passenger" departSpeed="max"/>
    <trip id="veh79" depart="30.45" from="-26214718#1" to="30020879" departLane="best" type="veh_passenger"/>
    <trip id="veh80" depart="30.84" from="-447793052" to="853680484#2" departLane="best" type="veh_passenger" departSpeed="max"/>
    <trip id="veh81" depart="31.22" from="651986031#0" to="-26214664#12" departLane="best" type="veh_passenger" departSpeed="max"/>
    <trip id="veh82" depart="31.61" from="-480482431#1" to="33633600#4" departLane="best" type="veh_passenger"/>
    <trip id="veh83" depart="31.99" from="-445054340#8" to="-296509395#3" departLane="best" type="veh_passenger"/>
    <trip id="veh84" depart="32.38" from="870667087#0" to="29420689#1" departLane="best" type="veh_passenger" departSpeed="max"/>
    <trip id="veh85" depart="32.76" from="-917858161#1" to="481681433#2" departLane="best" type="veh_passenger"/>
    <trip id="veh86" depart="33.15" from="481063562#8" to="-33633600#6" departLane="best" type="veh_passenger"/>
    <trip id="veh87" depart="33.53" from="-29420711#6" to="-919692248" departLane="best" type="veh_passenger" departSpeed="max"/>
    <trip id="veh88" depart="33.92" from="-887923379" to="1489803240" departLane="best" type="veh_passenger" departSpeed="max"/>
    <trip id="veh89" depart="34.30" from="35442958#0" to="34295200#5" departLane="best" type="veh_passenger"/>
    <trip id="veh90" depart="34.69" from="918700581" to="-26311303#0" departLane="best" type="veh_passenger" departSpeed="max"/>
    <trip id="veh91" depart="35.08" from="-856366380" to="-774171330#0" departLane="best" type="veh_passenger" departSpeed="max"/>
    <trip id="veh92" depart="35.46" from="652032715" to="-480535587" departLane="best" type="veh_passenger" departSpeed="max"/>
    <trip id="veh93" depart="35.85" from="-35442948" to="122679801#1" departLane="best" type="veh_passenger"/>
    <trip id="veh94" depart="36.23" from="-885813929#4" to="-481065972" departLane="best" type="veh_passenger" departSpeed="max"/>
    <trip id="veh95" depart="36.62" from="-480535587" to="868331615" departLane="best" type="veh_passenger"/>
    <trip id="veh96" depart="37.00" from="-908076655#1" to="840216775" departLane="best" type="veh_passenger" departSpeed="max"/>
    <trip id="veh97" depart="37.39" from="25533087#0" to="-25724368#1" departLane="best" type="veh_passenger"/>
    <trip id="veh98" depart="37.77" from="997067619" to="652763801#17" departLane="best" type="veh_passenger" departSpeed="max"/>
    <trip id="veh99" depart="38.16" from="91638040#12" to="870667087#3" departLane="best" type="veh_passenger"/>
    <trip id="veh100" depart="38.54" from="489447764#2" to="-30374035#9" departLane="best" type="veh_passenger"/>
    <trip id="veh101" depart="38.93" from="1122600505" to="-444057068#1" departLane="best" type="veh_passenger" departSpeed="max"/>
    <trip id="veh102" depart="39.32" from="-855273895" to="-26153775#8" departLane="best" type="veh_passenger" departSpeed="max"/>
    <trip id="veh103" depart="39.70" from="-852152839#2" to="917491382" departLane="best" type="veh_passenger"/>
    <trip id="veh104" depart="40.09" from="-480869371" to="481681425#2" departLane="best" type="veh_passenger" departSpeed="max"/>
    <trip id="veh105" depart="40.47" from="-915904824#2" to="-91638104#1" departLane="best" type="veh_passenger" departSpeed="max"/>
    <trip id="veh106" depart="40.86" from="906565087" to="930610386#1" departLane="best" type="veh_passenger"/>
    <trip id="veh107" depart="41.24" from="25724271#0" to="447793472" departLane="best" type="veh_passenger"/>
    <trip id="veh108" depart="41.63" from="-30374041#14" to="-481884902#1" departLane="best" type="veh_passenger"/>
    <trip id="veh109" depart="42.01" from="91638040#11" to="29453255#0" departLane="best" type="veh_passenger"/>
    <trip id="veh110" depart="42.40" from="254122212#0" to="480535587" departLane="best" type="veh_passenger" departSpeed="max"/>
    <trip id="veh111" depart="42.78" from="-26162359#19" to="29457439#1" departLane="best" type="veh_passenger"/>
    <trip id="veh112" depart="43.17" from="1421584079" to="690370666#0" departLane="best" type="veh_passenger"/>
    <trip id="veh113" depart="43.56" from="-304821441#2" to="908807280#1" departLane="best" type="veh_passenger"/>
    <trip id="veh114" depart="43.94" from="-26285139#13" to="-305893120#9" departLane="best" type="veh_passenger"/>
    <trip id="veh115" depart="44.33" from="26267240#3" to="34571167#0" departLane="best" type="veh_passenger"/>
    <trip id="veh116" depart="44.71" from="-480297721#7" to="-29457560" departLane="best" type="veh_passenger"/>
    <trip id="veh117" depart="45.10" from="817274789#0" to="-480535584#1" departLane="best" type="veh_passenger" departSpeed="max"/>
    <trip id="veh118" depart="45.48" from="26267240#0" to="29969485#20" departLane="best" type="veh_passenger"/>
    <trip id="veh119" depart="45.87" from="-879806701" to="29457388#5" departLane="best" type="veh_passenger" departSpeed="max"/>
    <trip id="veh120" depart="46.25" from="164489975#3" to="882694197#0" departLane="best" type="veh_passenger"/>
    <trip id="veh121" depart="46.64" from="-444047074#1" to="447778937#1" departLane="best" type="veh_passenger" departSpeed="max"/>
    <trip id="veh122" depart="47.02" from="-480497044#1" to="-899906283" departLane="best" type="veh_passenger"/>
    <trip id="veh123" depart="47.41" from="29969430#6" to="-489437884#2" departLane="best" type="veh_passenger"/>
    <trip id="veh124" depart="47.80" from="-489878282" to="480696816#2" departLane="best" type="veh_passenger" departSpeed="max"/>
    <trip id="veh125" depart="48.18" from="-26215094#2" to="1421584078#1-AddedOnRampEdge" departLane="best" type="veh_passenger"/>
    <trip id="veh126" depart="48.57" from="996794177" to="949330832" departLane="best" type="veh_passenger"/>
    <trip id="veh127" depart="48.95" from="-26267021" to="-444051275#0" departLane="best" type="veh_passenger" departSpeed="max"/>
    <trip id="veh128" depart="49.34" from="-480869371" to="878630932#1" departLane="best" type="veh_passenger" departSpeed="max"/>
    <trip id="veh129" depart="49.72" from="654208524#1-AddedOnRampEdge" to="848655780#0" departLane="best" type="veh_passenger"/>
    <trip id="veh130" depart="50.11" from="-850809376#1" to="-30020486#9" departLane="best" type="veh_passenger"/>
    <trip id="veh131" depart="50.49" from="481681445#13" to="445054347" departLane="best" type="veh_passenger"/>
    <trip id="veh132" depart="50.88" from="26311168#5" to="917858159#2" departLane="best" type="veh_passenger"/>
    <trip id="veh133" depart="51.26" from="296509379#5" to="-1421584070" departLane="best" type="veh_passenger"/>
    <trip id="veh134" depart="51.65" from="481069594" to="-489431422#1" departLane="best" type="veh_passenger" departSpeed="max"/>
    <trip id="veh135" depart="52.04" from="29697333#6" to="887923386" departLane="best" type="veh_passenger"/>
    <trip id="veh136" depart="52.42" from="-29969485#4" to="-29457388#0" departLane="best" type="veh_passenger"/>
    <trip id="veh137" depart="52.81" from="-29457388#4" to="26285113#2" departLane="best" type="veh_passenger"/>
    <trip id="veh138" depart="53.19" from="-481063562#16" to="29697307#5" departLane="best" type="veh_passenger"/>
    <trip id="veh139" depart="53.58" from="33633600#3" to="-35443655#0" departLane="best" type="veh_passenger"/>
    <trip id="veh140" depart="53.96" from="29457486#0" to="-480869376#3" departLane="best" type="veh_passenger" departSpeed="max"/>
    <trip id="veh141" depart="54.35" from="1122600516" to="853680484#1" departLane="best" type="veh_passenger" departSpeed="max"/>
    <trip id="veh142" depart="54.73" from="489442130#2" to="-26287055" departLane="best" type="veh_passenger"/>
    <trip id="veh143" depart="55.12" from="-887923379" to="-481063583#22" departLane="best" type="veh_passenger" departSpeed="max"/>
    <trip id="veh144" depart="55.50" from="-1211752793" to="481063562#5" departLane="best" type="veh_passenger" departSpeed="max"/>
    <trip id="veh145" depart="55.89" from="29457581" to="-480869372#6" departLane="best" type="veh_passenger" departSpeed="max"/>
    <trip id="veh146" depart="56.28" from="444047076" to="26267267#0" departLane="best" type="veh_passenger"/>
    <trip id="veh147" depart="56.66" from="-891812850" to="-154503797" departLane="best" type="veh_passenger" departSpeed="max"/>
    <trip id="veh148" depart="57.05" from="-26267231#1" to="850809385" departLane="best" type="veh_passenger"/>
    <trip id="veh149" depart="57.43" from="852014619#1" to="26214770#0" departLane="best" type="veh_passenger"/>
    <trip id="veh150" depart="57.82" from="481681445#8" to="29457350" departLane="best" type="veh_passenger"/>
    <trip id="veh151" depart="58.20" from="-30374033#0" to="-296509379#0" departLane="best" type="veh_passenger"/>
    <trip id="veh152" depart="58.59" from="-489447764#5" to="852662568" departLane="best" type="veh_passenger"/>
    <trip id="veh153" depart="58.97" from="480869367#0" to="840216775" departLane="best" type="veh_passenger" departSpeed="max"/>
    <trip id="veh154" depart="59.36" from="846445154#1" to="-444025407#2" departLane="best" type="veh_passenger"/>
    <trip id="veh155" depart="59.74" from="-480535585#8" to="-29420674#1" departLane="best" type="veh_passenger"/>
    <trip id="veh156" depart="60.13" from="-857652737#1" to="29969495#0" departLane="best" type="veh_passenger" departSpeed="max"/>
    <trip id="veh157" depart="60.52" from="-30374041#10" to="875798517" departLane="best" type="veh_passenger"/>
    <trip id="veh158" depart="60.90" from="652278104#2" to="91638060" departLane="best" type="veh_passenger"/>
    <trip id="veh159" depart="61.29" from="481063576#5" to="850809383" departLane="best" type="veh_passenger"/>
    <trip id="veh160" depart="61.67" from="-243279365#5" to="480506719" departLane="best" type="veh_passenger"/>
    <trip id="veh161" depart="62.06" from="-652417940#1" to="878630930" departLane="best" type="veh_passenger" departSpeed="max"/>
    <trip id="veh162" depart="62.44" from="480874116#0" to="840264328" departLane="best" type="veh_passenger" departSpeed="max"/>
    <trip id="veh163" depart="62.83" from="481063576#5" to="-480874134#0" departLane="best" type="veh_passenger"/>
    <trip id="veh164" depart="63.21" from="480696814#3" to="-29453083#2" departLane="best" type="veh_passenger"/>
    <trip id="veh165" depart="63.60" from="652763801#15" to="823949317" departLane="best" type="veh_passenger"/>
    <trip id="veh166" depart="63.98" from="-447679601#1" to="489878282" departLane="best" type="veh_passenger" departSpeed="max"/>
    <trip id="veh167" depart="64.37" from="-91638055#0" to="-489447755#0" departLane="best" type="veh_passenger"/>
    <trip id="veh168" depart="64.75" from="480869365#6" to="-446984792#0" departLane="best" type="veh_passenger"/>
    <trip id="veh169" depart="65.14" from="-242718337#5" to="-33633713" departLane="best" type="veh_passenger" departSpeed="max"/>
    <trip id="veh170" depart="65.53" from="-652293244#1" to="840264328" departLane="best" type="veh_passenger"/>
    <trip id="veh171" depart="65.91" from="915904824#0" to="-481069594" departLane="best" type="veh_passenger" departSpeed="max"/>
    <trip id="veh172" depart="66.30" from="295138501#0" to="-906180799" departLane="best" type="veh_passenger"/>
    <trip id="veh173" depart="66.68" from="91639690#1" to="26162410#1" departLane="best" type="veh_passenger"/>
    <trip id="veh174" depart="67.07" from="871235912" to="-29457388#0" departLane="best" type="veh_passenger" departSpeed="max"/>
    <trip id="veh175" depart="67.45" from="91638040#9" to="-305891982#0" departLane="best" type="veh_passenger"/>
    <trip id="veh176" depart="67.84" from="-29457454" to="-923839137#2" departLane="best" type="veh_passenger" departSpeed="max"/>
    <trip id="veh177" depart="68.22" from="35442946#8" to="-651677262#3" departLane="best" type="veh_passenger"/>
    <trip id="veh178" depart="68.61" from="26286961#8" to="25724341#1" departLane="best" type="veh_passenger"/>
    <trip id="veh179" depart="68.99" from="-852619731" to="29453093#0" departLane="best" type="veh_passenger" departSpeed="max"/>
    <trip id="veh180" depart="69.38" from="-480712292#0" to="447382297" departLane="best" type="veh_passenger"/>
    <trip id="veh181" depart="69.77" from="24404753#0" to="447793649" departLane="best" type="veh_passenger" departSpeed="max"/>
    <trip id="veh182" depart="70.15" from="444053418#1" to="33633663#1" departLane="best" type="veh_passenger"/>
    <trip id="veh183" depart="70.54" from="-845650026" to="-26162422#3" departLane="best" type="veh_passenger" departSpeed="max"/>
    <trip id="veh184" depart="70.92" from="29697396#2" to="-652763801#13" departLane="best" type="veh_passenger"/>
    <trip id="veh185" depart="71.31" from="-489878273" to="655653808#1-AddedOnRampEdge" departLane="best" type="veh_passenger" departSpeed="max"/>
    <trip id="veh186" depart="71.69" from="33633700#0" to="-489437884#6" departLane="best" type="veh_passenger"/>
    <trip id="veh187" depart="72.08" from="-489451517#1" to="-911652643#0" departLane="best" type="veh_passenger"/>
    <trip id="veh188" depart="72.46" from="-856366380" to="-481884902#0" departLane="best" type="veh_passenger" departSpeed="max"/>
    <trip id="veh189" depart="72.85" from="-29968749#4" to="-91638079#6" departLane="best" type="veh_passenger"/>
    <trip id="veh190" depart="73.23" from="875798504#0" to="35442946#5" departLane="best" type="veh_passenger" departSpeed="max"/>
    <trip id="veh191" depart="73.62" from="851828862#0" to="29969430#6" departLane="best" type="veh_passenger" departSpeed="max"/>
    <trip id="veh192" depart="74.01" from="-489439867" to="26267060#1" departLane="best" type="veh_passenger" departSpeed="max"/>
    <trip id="veh193" depart="74.39" from="-1122600519#1" to="-481681435" departLane="best" type="veh_passenger"/>
    <trip id="veh194" depart="74.78" from="-899169136" to="29453326#0" departLane="best" type="veh_passenger"/>
    <trip id="veh195" depart="75.16" from="296509386" to="1432289787" departLane="best" type="veh_passenger" departSpeed="max"/>
    <trip id="veh196" depart="75.55" from="-906650262#3" to="-444057068#1" departLane="best" type="veh_passenger"/>
    <trip id="veh197" depart="75.93" from="-920124624#0" to="852678425" departLane="best" type="veh_passenger"/>
    <trip id="veh198" depart="76.32" from="480869367#0" to="-304821441#1" departLane="best" type="veh_passenger" departSpeed="max"/>
    <trip id="veh199" depart="76.70" from="-26311164#1" to="26119210#6" departLane="best" type="veh_passenger"/>
    <trip id="veh200" depart="77.09" from="29457388#6" to="-652817962" departLane="best" type="veh_passenger"/>
    <trip id="veh201" depart="77.47" from="481069597" to="480696814#4" departLane="best" type="veh_passenger" departSpeed="max"/>
    <trip id="veh202" depart="77.86" from="29969473#5" to="-445054345#1" departLane="best" type="veh_passenger"/>
    <trip id="veh203" depart="78.25" from="-444017167#0" to="-227139924" departLane="best" type="veh_passenger"/>
    <trip id="veh204" depart="78.63" from="-480524243#4" to="161206721" departLane="best" type="veh_passenger" departSpeed="max"/>
    <trip id="veh205" depart="79.02" from="489450343#4" to="-26214678#0" departLane="best" type="veh_passenger"/>
    <trip id="veh206" depart="79.40" from="-875798504#1" to="30020597" departLane="best" type="veh_passenger" departSpeed="max"/>
    <trip id="veh207" depart="79.79" from="-361782610#2" to="444060949#6" departLane="best" type="veh_passenger"/>
    <trip id="veh208" depart="80.17" from="296509390" to="-1122600525" departLane="best" type="veh_passenger" departSpeed="max"/>
    <trip id="veh209" depart="80.56" from="445054340#3" to="481063562#12" departLane="best" type="veh_passenger"/>
    <trip id="veh210" depart="80.94" from="-29457388#2" to="-91639688#2" departLane="best" type="veh_passenger"/>
    <trip id="veh211" depart="81.33" from="-305999982" to="908076655#0" departLane="best" type="veh_passenger" departSpeed="max"/>
    <trip id="veh212" depart="81.71" from="154503867#0" to="-25724365" departLane="best" type="veh_passenger"/>
    <trip id="veh213" depart="82.10" from="-480535585#6" to="668235793#0" departLane="best" type="veh_passenger"/>
    <trip id="veh214" depart="82.49" from="-91638040#0" to="489439871#0" departLane="best" type="veh_passenger"/>
    <trip id="veh215" depart="82.87" from="29709229#15" to="917858161#0" departLane="best" type="veh_passenger"/>
    <trip id="veh216" depart="83.26" from="26267240#5" to="903940198#0" departLane="best" type="veh_passenger"/>
    <trip id="veh217" depart="83.64" from="817274790#0" to="29968726#3" departLane="best" type="veh_passenger" departSpeed="max"/>
    <trip id="veh218" depart="84.03" from="33633663#0" to="25533087#3" departLane="best" type="veh_passenger"/>
    <trip id="veh219" depart="84.41" from="481681439#8" to="26267060#1" departLane="best" type="veh_passenger"/>
    <trip id="veh220" depart="84.80" from="844661953#1" to="480524768" departLane="best" type="veh_passenger"/>
    <trip id="veh221" depart="85.18" from="-923839137#2" to="-480869367#2" departLane="best" type="veh_passenger"/>
    <trip id="veh222" depart="85.57" from="-480535583#2" to="30374035#4" departLane="best" type="veh_passenger"/>
    <trip id="veh223" depart="85.95" from="472365051#0" to="26153777#0" departLane="best" type="veh_passenger"/>
    <trip id="veh224" depart="86.34" from="29453236#3" to="-481063580#2" departLane="best" type="veh_passenger"/>
    <trip id="veh225" depart="86.73" from="-26267257#0" to="-481681433#0" departLane="best" type="veh_passenger"/>
    <trip id="veh226" depart="87.11" from="-481063562#10" to="-652031407#0" departLane="best" type="veh_passenger"/>
    <trip id="veh227" depart="87.50" from="24448974#3" to="-29697396#1" departLane="best" type="veh_passenger"/>
    <trip id="veh228" depart="87.88" from="-447793649" to="444051275#1" departLane="best" type="veh_passenger" departSpeed="max"/>
    <trip id="veh229" depart="88.27" from="305891982#0" to="-26162359#9" departLane="best" type="veh_passenger"/>
    <trip id="veh230" depart="88.65" from="-857851529#2" to="26214684#2" departLane="best" type="veh_passenger"/>
    <trip id="veh231" depart="89.04" from="-875798517" to="-442846128#0" departLane="best" type="veh_passenger" departSpeed="max"/>
    <trip id="veh232" depart="89.42" from="-884870067#4" to="853680055#1" departLane="best" type="veh_passenger" departSpeed="max"/>
    <trip id="veh233" depart="89.81" from="26162909#0" to="444060949#1" departLane="best" type="veh_passenger"/>
    <trip id="veh234" depart="90.19" from="651966519" to="480869375#0" departLane="best" type="veh_passenger" departSpeed="max"/>
    <trip id="veh235" depart="90.58" from="-852152841#2" to="-1122600525" departLane="best" type="veh_passenger"/>
    <trip id="veh236" depart="90.97" from="-840260598" to="480712292#3" departLane="best" type="veh_passenger" departSpeed="max"/>
    <trip id="veh237" depart="91.35" from="489672060#1" to="904299053" departLane="best" type="veh_passenger"/>
    <trip id="veh238" depart="91.74" from="-879806701" to="480535585#7" departLane="best" type="veh_passenger" departSpeed="max"/>