<?xml version="1.0" encoding="UTF-8"?>

<!-- generated on 2026-06-13 13:28:15.689160 by Eclipse SUMO osmWebWizard.py v1_27_0+0000-e238ea04b71
<configuration>
    <net-file value="C:\Users\Lovemore\TrafficBrain\simulation\2026-06-13-13-24-10\osm.net.xml.gz"/>
    <ptlines-file value="C:\Users\Lovemore\TrafficBrain\simulation\2026-06-13-13-24-10\osm_ptlines.xml"/>
    <ptstops-file value="C:\Users\Lovemore\TrafficBrain\simulation\2026-06-13-13-24-10\osm_stops.add.xml"/>
    <output-file value="C:\Users\Lovemore\TrafficBrain\simulation\2026-06-13-13-24-10\osm_pt.rou.xml"/>
    <stopinfos-file value="C:\Users\Lovemore\TrafficBrain\simulation\2026-06-13-13-24-10\stopinfos.xml"/>
    <routes-file value="C:\Users\Lovemore\TrafficBrain\simulation\2026-06-13-13-24-10\vehroutes.xml"/>
    <trips-file value="C:\Users\Lovemore\TrafficBrain\simulation\2026-06-13-13-24-10\trips.trips.xml"/>
    <min-stops value="0"/>
    <extend-to-fringe value="True"/>
    <random-begin value="True"/>
    <seed value="42"/>
    <ignore-errors value="True"/>
    <types value="bus,tram,subway,light_rail,train,trolleybus,monorail,minibus,share_taxi,ferry,aerialway"/>
    <vtype-prefix value="pt_"/>
    <verbose value="True"/>
</configuration>
-->

<routes xmlns:xsi="http://www.w3.org/2001/XMLSchema-instance" xsi:noNamespaceSchemaLocation="http://sumo.dlr.de/xsd/routes_file.xsd">
    <vType id="pt_bus" vClass="bus"/>
    <vType id="pt_tram" vClass="tram"/>
    <vType id="pt_train" vClass="rail"/>
    <vType id="pt_subway" vClass="subway"/>
    <vType id="pt_light_rail" vClass="rail_urban"/>
    <vType id="pt_monorail" vClass="rail_urban"/>
    <vType id="pt_trolleybus" vClass="bus"/>
    <vType id="pt_minibus" vClass="bus"/>
    <vType id="pt_share_taxi" vClass="taxi"/>
    <vType id="pt_aerialway" vClass="cable_car" length="2.5" width="2" personCapacity="4"/>
    <vType id="pt_ferry" vClass="ship"/>
</routes>
