<?xml version="1.0" encoding="UTF-8"?>

<!-- generated on 2026-06-13T13:18:06.922255+02:00 by Eclipse SUMO duarouter 1.27.0
<duarouterConfiguration xmlns:xsi="http://www.w3.org/2001/XMLSchema-instance" xsi:noNamespaceSchemaLocation="http://sumo.dlr.de/xsd/duarouterConfiguration.xsd">

    <input>
        <net-file value="C:\Users\Lovemore\TrafficBrain\simulation\2026-06-13-13-08-26\osm.net.xml.gz"/>
        <route-files value="C:\Users\Lovemore\TrafficBrain\simulation\2026-06-13-13-08-26\osm.passenger.trips.xml"/>
    </input>

    <output>
        <output-file value="C:\Users\Lovemore\TrafficBrain\simulation\2026-06-13-13-08-26\osm.passenger.trips.xml.tmp"/>
        <alternatives-output value="NUL"/>
        <write-trips value="true"/>
    </output>

    <processing>
        <remove-loops value="true"/>
        <routing-threads value="2"/>
    </processing>

    <time>
        <begin value="0.0"/>
        <end value="3600.0"/>
    </time>

    <report>
        <no-warnings value="true"/>
        <ignore-errors value="true"/>
        <no-step-log value="true"/>
    </report>

</duarouterConfiguration>
-->

<routes xmlns:xsi="http://www.w3.org/2001/XMLSchema-instance" xsi:noNamespaceSchemaLocation="http://sumo.dlr.de/xsd/routes_file.xsd">
